cases/ieee30/IEEE30.raw
0  100.000
 IEEE 30-bus test system
 generated from MATPOWER data by tools/make_cases.py
      1, 3,     0.000,     0.000,     0.000,     0.000,   1, 1.00000,   0.0000,'BUS-1       ', 135.0000,   1
      2, 2,    21.700,    12.700,     0.000,     0.000,   1, 1.00000,   0.0000,'BUS-2       ', 135.0000,   1
      3, 1,     2.400,     1.200,     0.000,     0.000,   1, 1.00000,   0.0000,'BUS-3       ', 135.0000,   1
      4, 1,     7.600,     1.600,     0.000,     0.000,   1, 1.00000,   0.0000,'BUS-4       ', 135.0000,   1
      5, 1,     0.000,     0.000,     0.000,     0.190,   1, 1.00000,   0.0000,'BUS-5       ', 135.0000,   1
      6, 1,     0.000,     0.000,     0.000,     0.000,   1, 1.00000,   0.0000,'BUS-6       ', 135.0000,   1
      7, 1,    22.800,    10.900,     0.000,     0.000,   1, 1.00000,   0.0000,'BUS-7       ', 135.0000,   1
      8, 1,    30.000,    30.000,     0.000,     0.000,   1, 1.00000,   0.0000,'BUS-8       ', 135.0000,   1
      9, 1,     0.000,     0.000,     0.000,     0.000,   1, 1.00000,   0.0000,'BUS-9       ', 135.0000,   1
     10, 1,     5.800,     2.000,     0.000,     0.000,   3, 1.00000,   0.0000,'BUS-10      ', 135.0000,   1
     11, 1,     0.000,     0.000,     0.000,     0.000,   1, 1.00000,   0.0000,'BUS-11      ', 135.0000,   1
     12, 1,    11.200,     7.500,     0.000,     0.000,   2, 1.00000,   0.0000,'BUS-12      ', 135.0000,   1
     13, 2,     0.000,     0.000,     0.000,     0.000,   2, 1.00000,   0.0000,'BUS-13      ', 135.0000,   1
     14, 1,     6.200,     1.600,     0.000,     0.000,   2, 1.00000,   0.0000,'BUS-14      ', 135.0000,   1
     15, 1,     8.200,     2.500,     0.000,     0.000,   2, 1.00000,   0.0000,'BUS-15      ', 135.0000,   1
     16, 1,     3.500,     1.800,     0.000,     0.000,   2, 1.00000,   0.0000,'BUS-16      ', 135.0000,   1
     17, 1,     9.000,     5.800,     0.000,     0.000,   2, 1.00000,   0.0000,'BUS-17      ', 135.0000,   1
     18, 1,     3.200,     0.900,     0.000,     0.000,   2, 1.00000,   0.0000,'BUS-18      ', 135.0000,   1
     19, 1,     9.500,     3.400,     0.000,     0.000,   2, 1.00000,   0.0000,'BUS-19      ', 135.0000,   1
     20, 1,     2.200,     0.700,     0.000,     0.000,   2, 1.00000,   0.0000,'BUS-20      ', 135.0000,   1
     21, 1,    17.500,    11.200,     0.000,     0.000,   3, 1.00000,   0.0000,'BUS-21      ', 135.0000,   1
     22, 2,     0.000,     0.000,     0.000,     0.000,   3, 1.00000,   0.0000,'BUS-22      ', 135.0000,   1
     23, 2,     3.200,     1.600,     0.000,     0.000,   2, 1.00000,   0.0000,'BUS-23      ', 135.0000,   1
     24, 1,     8.700,     6.700,     0.000,     0.040,   3, 1.00000,   0.0000,'BUS-24      ', 135.0000,   1
     25, 1,     0.000,     0.000,     0.000,     0.000,   3, 1.00000,   0.0000,'BUS-25      ', 135.0000,   1
     26, 1,     3.500,     2.300,     0.000,     0.000,   3, 1.00000,   0.0000,'BUS-26      ', 135.0000,   1
     27, 2,     0.000,     0.000,     0.000,     0.000,   3, 1.00000,   0.0000,'BUS-27      ', 135.0000,   1
     28, 1,     0.000,     0.000,     0.000,     0.000,   1, 1.00000,   0.0000,'BUS-28      ', 135.0000,   1
     29, 1,     2.400,     0.900,     0.000,     0.000,   3, 1.00000,   0.0000,'BUS-29      ', 135.0000,   1
     30, 1,    10.600,     1.900,     0.000,     0.000,   3, 1.00000,   0.0000,'BUS-30      ', 135.0000,   1
0 / END OF BUS DATA, BEGIN GENERATOR DATA
      1,'1 ',    23.540,     0.000,   150.000,   -20.000, 1.00000,     0,   100.000,   0.00000,   1.00000,   0.00000,   0.00000,   1.00000,1,  100.0,    80.000,     0.000
      2,'1 ',    60.970,     0.000,    60.000,   -20.000, 1.00000,     0,   100.000,   0.00000,   1.00000,   0.00000,   0.00000,   1.00000,1,  100.0,    80.000,     0.000
     22,'1 ',    21.590,     0.000,    62.500,   -15.000, 1.00000,     0,   100.000,   0.00000,   1.00000,   0.00000,   0.00000,   1.00000,1,  100.0,    50.000,     0.000
     27,'1 ',    26.910,     0.000,    48.700,   -15.000, 1.00000,     0,   100.000,   0.00000,   1.00000,   0.00000,   0.00000,   1.00000,1,  100.0,    55.000,     0.000
     23,'1 ',    19.200,     0.000,    40.000,   -10.000, 1.00000,     0,   100.000,   0.00000,   1.00000,   0.00000,   0.00000,   1.00000,1,  100.0,    30.000,     0.000
     13,'1 ',    37.000,     0.000,    44.700,   -15.000, 1.00000,     0,   100.000,   0.00000,   1.00000,   0.00000,   0.00000,   1.00000,1,  100.0,    40.000,     0.000
0 / END OF GENERATOR DATA, BEGIN BRANCH DATA
      1,      2,'1 ',   0.02000,   0.06000,   0.03000,   130.00,   130.00,   130.00, 0.00000,   0.000, 0.00000, 0.00000, 0.00000, 0.00000,1
      1,      3,'1 ',   0.05000,   0.19000,   0.02000,   130.00,   130.00,   130.00, 0.00000,   0.000, 0.00000, 0.00000, 0.00000, 0.00000,1
      2,      4,'1 ',   0.06000,   0.17000,   0.02000,    65.00,    65.00,    65.00, 0.00000,   0.000, 0.00000, 0.00000, 0.00000, 0.00000,1
      3,      4,'1 ',   0.01000,   0.04000,   0.00000,   130.00,   130.00,   130.00, 0.00000,   0.000, 0.00000, 0.00000, 0.00000, 0.00000,1
      2,      5,'1 ',   0.05000,   0.20000,   0.02000,   130.00,   130.00,   130.00, 0.00000,   0.000, 0.00000, 0.00000, 0.00000, 0.00000,1
      2,      6,'1 ',   0.06000,   0.18000,   0.02000,    65.00,    65.00,    65.00, 0.00000,   0.000, 0.00000, 0.00000, 0.00000, 0.00000,1
      4,      6,'1 ',   0.01000,   0.04000,   0.00000,    90.00,    90.00,    90.00, 0.00000,   0.000, 0.00000, 0.00000, 0.00000, 0.00000,1
      5,      7,'1 ',   0.05000,   0.12000,   0.01000,    70.00,    70.00,    70.00, 0.00000,   0.000, 0.00000, 0.00000, 0.00000, 0.00000,1
      6,      7,'1 ',   0.03000,   0.08000,   0.01000,   130.00,   130.00,   130.00, 0.00000,   0.000, 0.00000, 0.00000, 0.00000, 0.00000,1
      6,      8,'1 ',   0.01000,   0.04000,   0.00000,    32.00,    32.00,    32.00, 0.00000,   0.000, 0.00000, 0.00000, 0.00000, 0.00000,1
      6,      9,'1 ',   0.00000,   0.21000,   0.00000,    65.00,    65.00,    65.00, 0.00000,   0.000, 0.00000, 0.00000, 0.00000, 0.00000,1
      6,     10,'1 ',   0.00000,   0.56000,   0.00000,    32.00,    32.00,    32.00, 0.00000,   0.000, 0.00000, 0.00000, 0.00000, 0.00000,1
      9,     11,'1 ',   0.00000,   0.21000,   0.00000,    65.00,    65.00,    65.00, 0.00000,   0.000, 0.00000, 0.00000, 0.00000, 0.00000,1
      9,     10,'1 ',   0.00000,   0.11000,   0.00000,    65.00,    65.00,    65.00, 0.00000,   0.000, 0.00000, 0.00000, 0.00000, 0.00000,1
      4,     12,'1 ',   0.00000,   0.26000,   0.00000,    65.00,    65.00,    65.00, 0.00000,   0.000, 0.00000, 0.00000, 0.00000, 0.00000,1
     12,     13,'1 ',   0.00000,   0.14000,   0.00000,    65.00,    65.00,    65.00, 0.00000,   0.000, 0.00000, 0.00000, 0.00000, 0.00000,1
     12,     14,'1 ',   0.12000,   0.26000,   0.00000,    32.00,    32.00,    32.00, 0.00000,   0.000, 0.00000, 0.00000, 0.00000, 0.00000,1
     12,     15,'1 ',   0.07000,   0.13000,   0.00000,    32.00,    32.00,    32.00, 0.00000,   0.000, 0.00000, 0.00000, 0.00000, 0.00000,1
     12,     16,'1 ',   0.09000,   0.20000,   0.00000,    32.00,    32.00,    32.00, 0.00000,   0.000, 0.00000, 0.00000, 0.00000, 0.00000,1
     14,     15,'1 ',   0.22000,   0.20000,   0.00000,    16.00,    16.00,    16.00, 0.00000,   0.000, 0.00000, 0.00000, 0.00000, 0.00000,1
     16,     17,'1 ',   0.08000,   0.19000,   0.00000,    16.00,    16.00,    16.00, 0.00000,   0.000, 0.00000, 0.00000, 0.00000, 0.00000,1
     15,     18,'1 ',   0.11000,   0.22000,   0.00000,    16.00,    16.00,    16.00, 0.00000,   0.000, 0.00000, 0.00000, 0.00000, 0.00000,1
     18,     19,'1 ',   0.06000,   0.13000,   0.00000,    16.00,    16.00,    16.00, 0.00000,   0.000, 0.00000, 0.00000, 0.00000, 0.00000,1
     19,     20,'1 ',   0.03000,   0.07000,   0.00000,    32.00,    32.00,    32.00, 0.00000,   0.000, 0.00000, 0.00000, 0.00000, 0.00000,1
     10,     20,'1 ',   0.09000,   0.21000,   0.00000,    32.00,    32.00,    32.00, 0.00000,   0.000, 0.00000, 0.00000, 0.00000, 0.00000,1
     10,     17,'1 ',   0.03000,   0.08000,   0.00000,    32.00,    32.00,    32.00, 0.00000,   0.000, 0.00000, 0.00000, 0.00000, 0.00000,1
     10,     21,'1 ',   0.03000,   0.07000,   0.00000,    32.00,    32.00,    32.00, 0.00000,   0.000, 0.00000, 0.00000, 0.00000, 0.00000,1
     10,     22,'1 ',   0.07000,   0.15000,   0.00000,    32.00,    32.00,    32.00, 0.00000,   0.000, 0.00000, 0.00000, 0.00000, 0.00000,1
     21,     22,'1 ',   0.01000,   0.02000,   0.00000,    32.00,    32.00,    32.00, 0.00000,   0.000, 0.00000, 0.00000, 0.00000, 0.00000,1
     15,     23,'1 ',   0.10000,   0.20000,   0.00000,    16.00,    16.00,    16.00, 0.00000,   0.000, 0.00000, 0.00000, 0.00000, 0.00000,1
     22,     24,'1 ',   0.12000,   0.18000,   0.00000,    16.00,    16.00,    16.00, 0.00000,   0.000, 0.00000, 0.00000, 0.00000, 0.00000,1
     23,     24,'1 ',   0.13000,   0.27000,   0.00000,    16.00,    16.00,    16.00, 0.00000,   0.000, 0.00000, 0.00000, 0.00000, 0.00000,1
     24,     25,'1 ',   0.19000,   0.33000,   0.00000,    16.00,    16.00,    16.00, 0.00000,   0.000, 0.00000, 0.00000, 0.00000, 0.00000,1
     25,     26,'1 ',   0.25000,   0.38000,   0.00000,    16.00,    16.00,    16.00, 0.00000,   0.000, 0.00000, 0.00000, 0.00000, 0.00000,1
     25,     27,'1 ',   0.11000,   0.21000,   0.00000,    16.00,    16.00,    16.00, 0.00000,   0.000, 0.00000, 0.00000, 0.00000, 0.00000,1
     28,     27,'1 ',   0.00000,   0.40000,   0.00000,    65.00,    65.00,    65.00, 0.00000,   0.000, 0.00000, 0.00000, 0.00000, 0.00000,1
     27,     29,'1 ',   0.22000,   0.42000,   0.00000,    16.00,    16.00,    16.00, 0.00000,   0.000, 0.00000, 0.00000, 0.00000, 0.00000,1
     27,     30,'1 ',   0.32000,   0.60000,   0.00000,    16.00,    16.00,    16.00, 0.00000,   0.000, 0.00000, 0.00000, 0.00000, 0.00000,1
     29,     30,'1 ',   0.24000,   0.45000,   0.00000,    16.00,    16.00,    16.00, 0.00000,   0.000, 0.00000, 0.00000, 0.00000, 0.00000,1
      8,     28,'1 ',   0.06000,   0.20000,   0.02000,    32.00,    32.00,    32.00, 0.00000,   0.000, 0.00000, 0.00000, 0.00000, 0.00000,1
      6,     28,'1 ',   0.02000,   0.06000,   0.01000,    32.00,    32.00,    32.00, 0.00000,   0.000, 0.00000, 0.00000, 0.00000, 0.00000,1
0 / END OF BRANCH DATA, BEGIN TRANSFORMER ADJUSTMENT DATA
0 / END OF TRANSFORMER ADJUSTMENT DATA, BEGIN AREA DATA
   1,      1,     0.0,  3.000,'AREA_1      '
   2,      1,     0.0,  3.000,'AREA_2      '
   3,      1,     0.0,  3.000,'AREA_3      '
0 / END OF AREA DATA, BEGIN TWO-TERMINAL DC DATA
0 / END OF TWO-TERMINAL DC DATA, BEGIN SWITCHED SHUNT DATA
0 / END OF SWITCHED SHUNT DATA, BEGIN IMPEDANCE CORRECTION DATA
0 / END OF IMPEDANCE CORRECTION DATA, BEGIN MULTI-TERMINAL DC DATA
0 / END OF MULTI-TERMINAL DC DATA, BEGIN MULTI-SECTION LINE DATA
0 / END OF MULTI-SECTION LINE DATA, BEGIN ZONE DATA
    1,'ZONE_1      '
0 / END OF ZONE DATA, BEGIN INTER-AREA TRANSFER DATA
0 / END OF INTER-AREA TRANSFER DATA, BEGIN OWNER DATA
    1,'OWNER_1     '
0 / END OF OWNER DATA, BEGIN FACTS DEVICE DATA
0 / END OF FACTS DEVICE DATA
