cases/ieee30/reference.csv
bus_id,vm_pu,va_deg,matpower_vm_pu,matpower_va_deg
1,1.000000,0.0000,1.000000,0.0000
2,1.000000,-0.4155,1.000000,0.0000
3,0.983138,-1.5221,1.000000,0.0000
4,0.980093,-1.7947,1.000000,0.0000
5,0.982406,-1.8638,1.000000,0.0000
6,0.973184,-2.2670,1.000000,0.0000
7,0.967355,-2.6518,1.000000,0.0000
8,0.960624,-2.7258,1.000000,0.0000
9,0.980506,-2.9969,1.000000,0.0000
10,0.984404,-3.3749,1.000000,0.0000
11,0.980506,-2.9969,1.000000,0.0000
12,0.985468,-1.5369,1.000000,0.0000
13,1.000000,1.4762,1.000000,0.0000
14,0.976677,-2.3080,1.000000,0.0000
15,0.980229,-2.3118,1.000000,0.0000
16,0.977396,-2.6445,1.000000,0.0000
17,0.976865,-3.3923,1.000000,0.0000
18,0.968440,-3.4784,1.000000,0.0000
19,0.965287,-3.9582,1.000000,0.0000
20,0.969166,-3.8710,1.000000,0.0000
21,0.993383,-3.4884,1.000000,0.0000
22,1.000000,-3.3927,1.000000,0.0000
23,1.000000,-1.5892,1.000000,0.0000
24,0.988566,-2.6315,1.000000,0.0000
25,0.990215,-1.6900,1.000000,0.0000
26,0.972194,-2.1393,1.000000,0.0000
27,1.000000,-0.8284,1.000000,0.0000
28,0.974715,-2.2659,1.000000,0.0000
29,0.979597,-2.1285,1.000000,0.0000
30,0.967883,-3.0415,1.000000,0.0000
